finidat = '/scratch1/06091/nanr/CESM/inputdata/ccsm4_init/FAMIPC5_ne120_79to05_03_omp2/2000-01-01/FAMIPC5_ne120_79to05_03_omp2.clm2.r.2000-01-01-00000.IP.nc'
