finidat = '${DIN_LOC_ROOT}/ccsm4_init/B.E.13.B1850C5.ne120_t12.sehires38.003/0021-01-01/B.E.13.B1850C5.ne120_t12.sehires38.003.clm2.r.0021-01-01-00000.IP-2000.nc'
