check_finidat_year_consistency = .false.
for_testing_allow_non_annual_changes = .true.
