frivinp = "/glade/campaign/cesm/cesmdata/inputdata/rof/mosart/MOSART_routing_Global_0.5x0.5_c170601.nc"
